Version 4
SHEET 1 880 680
WIRE -3168 -1760 -3776 -1760
WIRE -2816 -1760 -3168 -1760
WIRE -3776 -1744 -3776 -1760
WIRE -3776 -1632 -3776 -1664
WIRE -2816 -1616 -2816 -1760
WIRE -2880 -1568 -2944 -1568
WIRE -3168 -1488 -3168 -1760
WIRE -3728 -1456 -3776 -1456
WIRE -3584 -1456 -3648 -1456
WIRE -3312 -1456 -3584 -1456
WIRE -2944 -1408 -2944 -1568
WIRE -2944 -1408 -3104 -1408
WIRE -2816 -1408 -2816 -1520
WIRE -2688 -1408 -2816 -1408
WIRE -2624 -1408 -2624 -1424
WIRE -2624 -1408 -2688 -1408
WIRE -2624 -1392 -2624 -1408
WIRE -3584 -1376 -3584 -1456
WIRE -3776 -1360 -3776 -1456
WIRE -3312 -1360 -3392 -1360
WIRE -2816 -1296 -2816 -1408
WIRE -2944 -1248 -2944 -1408
WIRE -2880 -1248 -2944 -1248
WIRE -3776 -1216 -3776 -1280
WIRE -3584 -1216 -3584 -1312
WIRE -2624 -1216 -2624 -1312
WIRE -3392 -1120 -3392 -1360
WIRE -3296 -1120 -3392 -1120
WIRE -2688 -1120 -2688 -1408
WIRE -2688 -1120 -3216 -1120
WIRE -3392 -1088 -3392 -1120
WIRE -3776 -1056 -3776 -1088
WIRE -3776 -944 -3776 -976
WIRE -3168 -944 -3168 -1328
WIRE -3168 -944 -3776 -944
WIRE -2816 -944 -2816 -1200
WIRE -2816 -944 -3168 -944
FLAG -3392 -1008 0
FLAG -3776 -1632 0
FLAG -3776 -1088 0
FLAG -3776 -1216 0
FLAG -2624 -1216 0
FLAG -3584 -1216 0
FLAG -3776 -1456 vIn
FLAG -2624 -1424 vOut
SYMBOL res -3408 -1104 R0
SYMATTR InstName R2
SYMATTR Value 1k
SYMBOL voltage -3776 -1072 R0
WINDOW 123 0 0 Left 0
WINDOW 39 0 0 Left 0
SYMATTR InstName V1
SYMATTR Value 15
SYMBOL voltage -3776 -1760 R0
WINDOW 123 0 0 Left 0
WINDOW 39 0 0 Left 0
SYMATTR InstName V2
SYMATTR Value 15
SYMBOL res -3632 -1472 R90
WINDOW 0 0 56 VBottom 0
WINDOW 3 32 56 VTop 0
SYMATTR InstName R4
SYMATTR Value 1k
SYMBOL voltage -3776 -1376 R0
WINDOW 123 24 132 Left 0
WINDOW 39 0 0 Left 0
SYMATTR Value2 AC 1 0
SYMATTR InstName V3
SYMATTR Value SINE(0 100m 1k)
SYMBOL res -2640 -1408 R0
SYMATTR InstName R3
SYMATTR Value 100
SYMBOL cap -3600 -1376 R0
SYMATTR InstName C1
SYMATTR Value 39p
SYMBOL res -3312 -1104 R270
WINDOW 0 32 56 VTop 0
WINDOW 3 0 56 VBottom 0
SYMATTR InstName R1
SYMATTR Value 9k
SYMBOL TL071_discrete -3216 -1408 R0
SYMATTR InstName TL071
SYMBOL npn -2880 -1616 R0
SYMATTR InstName Q1
SYMATTR Value BC546B
SYMBOL pnp -2880 -1200 M180
SYMATTR InstName Q2
SYMATTR Value BC556B
TEXT -4080 -1544 Left 0 !;ac oct 100 10 10000k
TEXT -4080 -1496 Left 0 !.tran 3m
